10
acetone
C      1.30510   -0.67720   -0.00000
C      0.00000    0.07630   -0.00000
O     -0.00000    1.28390    0.00000
C     -1.30510   -0.67720    0.00000
H      1.61980   -0.85880    1.02770
H      1.17480   -1.62960   -0.51380
H      2.06470   -0.08810   -0.51380
H     -1.10590   -1.74880   -0.00000
H     -1.87670   -0.41380    0.89000
H     -1.87670   -0.41380   -0.89000
